!-Generator IDFEditor 1.51
!-Option SortedOrder UseSpecialFormat

!-NOTE: All comments with '!-' are ignored by the IDFEditor and are generated automatically.
!-      Use '!' comments if they need to be retained when using the IDFEditor.


!-   ===========  ALL OBJECTS IN CLASS: VERSION ===========

Version,22.1;

!-   ===========  ALL OBJECTS IN CLASS: SIMULATIONCONTROL ===========


SimulationControl,
    No,                      !- Do Zone Sizing Calculation
    No,                      !- Do System Sizing Calculation
    No,                      !- Do Plant Sizing Calculation
    No,                      !- Run Simulation for Sizing Periods
    Yes,                     !- Run Simulation for Weather File Run Periods
    No,                      !- Do HVAC Sizing Simulation for Sizing Periods
    1;                       !- Maximum Number of HVAC Sizing Simulation Passes


!-   ===========  ALL OBJECTS IN CLASS: BUILDING ===========

Building,
    IBB,                     !- Name
    -15,                     !- North Axis {deg}
    Suburbs,                 !- Terrain
    0.01,                    !- Loads Convergence Tolerance Value {W}
    0.01,                    !- Temperature Convergence Tolerance Value {deltaC}
    FullInteriorAndExterior, !- Solar Distribution
    150,                     !- Maximum Number of Warmup Days
    6;                       !- Minimum Number of Warmup Days


!-   ===========  ALL OBJECTS IN CLASS: SURFACECONVECTIONALGORITHM:INSIDE ===========

SurfaceConvectionAlgorithm:Inside,TARP;

!-   ===========  ALL OBJECTS IN CLASS: SURFACECONVECTIONALGORITHM:OUTSIDE ===========

SurfaceConvectionAlgorithm:Outside,TARP;

!-   ===========  ALL OBJECTS IN CLASS: TIMESTEP ===========

Timestep,6;

!-   ===========  ALL OBJECTS IN CLASS: SITE:LOCATION ===========


Site:Location,
    Bourget_du_Lac,          !- Name
    45.65,                   !- Latitude {deg}
    5.88,                    !- Longitude {deg}
    1.0,                     !- Time Zone {hr}
    239;                     !- Elevation {m}


!-   ===========  ALL OBJECTS IN CLASS: RUNPERIOD ===========

RunPeriod,
    Annee,                   !- Name
    MOIS_DEBUT,              !- Begin Month
    JOUR_DEBUT,              !- Begin Day of Month
    ,                        !- Begin Year
    MOIS_FIN,                !- End Month
    JOUR_FIN,                !- End Day of Month
    ,                        !- End Year
    ,                        !- Day of Week for Start Day
    Yes,                     !- Use Weather File Holidays and Special Days
    Yes,                     !- Use Weather File Daylight Saving Period
    No,                      !- Apply Weekend Holiday Rule
    Yes,                     !- Use Weather File Rain Indicators
    Yes;                     !- Use Weather File Snow Indicators


!-   ===========  ALL OBJECTS IN CLASS: WEATHERPROPERTY:SKYTEMPERATURE ===========

WeatherProperty:SkyTemperature,
    Annee,                   !- Name
    BerdahlMartin,           !- Calculation Type
    ,                        !- Schedule Name
    Yes;                     !- Use Weather File Horizontal IR


!-   ===========  ALL OBJECTS IN CLASS: SITE:GROUNDTEMPERATURE:BUILDINGSURFACE ===========

Site:GroundTemperature:BuildingSurface,4.5,6.21,9.3,12.99,16.28,18.27,18.43,16.69,13.55,9.86,6.58,4.62;

!-   ===========  ALL OBJECTS IN CLASS: SITE:GROUNDREFLECTANCE ===========

!
!
!
! Site:GroundTemperature:BuildingSurface,4.5,6.21,9.3,12.99,16.28,18.27,18.43,16.69,13.55,9.86,6.58,4.62;
Site:GroundReflectance,0.4,0.4,0.4,0.4,0.4,0.4,0.4,0.4,0.4,0.4,0.4,0.4;

!-   ===========  ALL OBJECTS IN CLASS: SCHEDULETYPELIMITS ===========


ScheduleTypeLimits,
    Any Number;              !- Name

!
! -------------------------------------------------------------
! New objects created from ExpandObjects
! -------------------------------------------------------------
!
ScheduleTypeLimits,
    HVACTemplate Any Number; !- Name


!-   ===========  ALL OBJECTS IN CLASS: SCHEDULE:DAY:INTERVAL ===========

Schedule:Day:Interval,
    RDC_Occupants_Sem,       !- Name
    Any Number,              !- Schedule Type Limits Name
    No,                      !- Interpolate to Timestep
    8:00,                    !- Time 1 {hh:mm}
    0,                       !- Value Until Time 1
    9:00,                    !- Time 2 {hh:mm}
    4,                       !- Value Until Time 2
    13:00,                   !- Time 3 {hh:mm}
    0,                       !- Value Until Time 3
    14:00,                   !- Time 4 {hh:mm}
    2,                       !- Value Until Time 4
    17:00,                   !- Time 5 {hh:mm}
    0,                       !- Value Until Time 5
    22:00,                   !- Time 6 {hh:mm}
    2,                       !- Value Until Time 6
    24:00,                   !- Time 7 {hh:mm}
    0;                       !- Value Until Time 7

Schedule:Day:Interval,
    RDC_Occupants_we,        !- Name
    Any Number,              !- Schedule Type Limits Name
    No,                      !- Interpolate to Timestep
    8:00,                    !- Time 1 {hh:mm}
    0,                       !- Value Until Time 1
    9:00,                    !- Time 2 {hh:mm}
    4,                       !- Value Until Time 2
    13:00,                   !- Time 3 {hh:mm}
    2,                       !- Value Until Time 3
    14:00,                   !- Time 4 {hh:mm}
    4,                       !- Value Until Time 4
    17:00,                   !- Time 5 {hh:mm}
    0,                       !- Value Until Time 5
    22:00,                   !- Time 6 {hh:mm}
    2,                       !- Value Until Time 6
    24:00,                   !- Time 7 {hh:mm}
    0;                       !- Value Until Time 7

Schedule:Day:Interval,
    RDC_People_we,           !- Name
    Any Number,              !- Schedule Type Limits Name
    No,                      !- Interpolate to Timestep
    9:00,                    !- Time 1 {hh:mm}
    0,                       !- Value Until Time 1
    23:00,                   !- Time 2 {hh:mm}
    120,                     !- Value Until Time 2
    24:00,                   !- Time 3 {hh:mm}
    0;                       !- Value Until Time 3

Schedule:Day:Interval,
    RDC_People_Sem,          !- Name
    Any Number,              !- Schedule Type Limits Name
    No,                      !- Interpolate to Timestep
    8:00,                    !- Time 1 {hh:mm}
    0,                       !- Value Until Time 1
    9:00,                    !- Time 2 {hh:mm}
    120,                     !- Value Until Time 2
    13:00,                   !- Time 3 {hh:mm}
    0,                       !- Value Until Time 3
    14:00,                   !- Time 4 {hh:mm}
    120,                     !- Value Until Time 4
    17:00,                   !- Time 5 {hh:mm}
    0,                       !- Value Until Time 5
    22:00,                   !- Time 6 {hh:mm}
    120,                     !- Value Until Time 6
    24:00,                   !- Time 7 {hh:mm}
    0;                       !- Value Until Time 7

Schedule:Day:Interval,
    Volets_RDC_sem,          !- Name
    Any Number,              !- Schedule Type Limits Name
    No,                      !- Interpolate to Timestep
    8:00,                    !- Time 1 {hh:mm}
    1,                       !- Value Until Time 1
    9:00,                    !- Time 2 {hh:mm}
    0,                       !- Value Until Time 2
    13:00,                   !- Time 3 {hh:mm}
    1,                       !- Value Until Time 3
    14:00,                   !- Time 4 {hh:mm}
    0,                       !- Value Until Time 4
    17:00,                   !- Time 5 {hh:mm}
    1,                       !- Value Until Time 5
    22:00,                   !- Time 6 {hh:mm}
    0,                       !- Value Until Time 6
    24:00,                   !- Time 7 {hh:mm}
    1;                       !- Value Until Time 7

Schedule:Day:Interval,
    Volets_RDC_we,           !- Name
    Any Number,              !- Schedule Type Limits Name
    No,                      !- Interpolate to Timestep
    8:00,                    !- Time 1 {hh:mm}
    1,                       !- Value Until Time 1
    14:00,                   !- Time 2 {hh:mm}
    0,                       !- Value Until Time 2
    17:00,                   !- Time 3 {hh:mm}
    1,                       !- Value Until Time 3
    22:00,                   !- Time 4 {hh:mm}
    0,                       !- Value Until Time 4
    24:00,                   !- Time 5 {hh:mm}
    1;                       !- Value Until Time 5


!-   ===========  ALL OBJECTS IN CLASS: SCHEDULE:WEEK:COMPACT ===========

Schedule:Week:Compact,
    RDC_Occupants,           !- Name
    Weekdays,                !- DayType List 1
    RDC_Occupants_Sem,       !- Schedule:Day Name 1
    Weekends,                !- DayType List 2
    RDC_Occupants_we,        !- Schedule:Day Name 2
    AllOtherDays,            !- DayType List 3
    RDC_Occupants_we;        !- Schedule:Day Name 3

Schedule:Week:Compact,
    RDC_People,              !- Name
    Weekdays,                !- DayType List 1
    RDC_People_Sem,          !- Schedule:Day Name 1
    Weekends,                !- DayType List 2
    RDC_People_we,           !- Schedule:Day Name 2
    AllOtherDays,            !- DayType List 3
    RDC_People_we;           !- Schedule:Day Name 3

Schedule:Week:Compact,
    Volets_RDC,              !- Name
    Weekdays,                !- DayType List 1
    Volets_RDC_sem,          !- Schedule:Day Name 1
    Weekends,                !- DayType List 2
    Volets_RDC_we,           !- Schedule:Day Name 2
    AllOtherDays,            !- DayType List 3
    Volets_RDC_we;           !- Schedule:Day Name 3


!-   ===========  ALL OBJECTS IN CLASS: SCHEDULE:YEAR ===========

Schedule:Year,
    RDC_Occupants,           !- Name
    Any Number,              !- Schedule Type Limits Name
    RDC_Occupants,           !- Schedule:Week Name 1
    1,                       !- Start Month 1
    1,                       !- Start Day 1
    12,                      !- End Month 1
    31;                      !- End Day 1

Schedule:Year,
    RDC_People,              !- Name
    Any Number,              !- Schedule Type Limits Name
    RDC_People,              !- Schedule:Week Name 1
    1,                       !- Start Month 1
    1,                       !- Start Day 1
    12,                      !- End Month 1
    31;                      !- End Day 1

Schedule:Year,
    Volets_RDC,              !- Name
    Any Number,              !- Schedule Type Limits Name
    Volets_RDC,              !- Schedule:Week Name 1
    1,                       !- Start Month 1
    1,                       !- Start Day 1
    12,                      !- End Month 1
    31;                      !- End Day 1


!-   ===========  ALL OBJECTS IN CLASS: SCHEDULE:COMPACT ===========

Schedule:Compact,
    On,                      !- Name
    Any Number,              !- Schedule Type Limits Name
    Through: 12/31,          !- Field 1
    For: AllDays,            !- Field 2
    Until: 24:00, 1;         !- Field 4

Schedule:Compact,
    Off,                     !- Name
    Any Number,              !- Schedule Type Limits Name
    Through: 12/31,          !- Field 1
    For: AllDays,            !- Field 2
    Until: 24:00, 0;         !- Field 4

Schedule:Compact,
    Occupant_ch2,            !- Name
    Any Number,              !- Schedule Type Limits Name
    Through: 12/31,          !- Field 1
    For: AllDays,            !- Field 2
    Until: 24:00, 1;         !- Field 4

Schedule:Compact,
    Occupant_ch3,            !- Name
    Any Number,              !- Schedule Type Limits Name
    Through: 12/31,          !- Field 1
    For: AllDays,            !- Field 2
    Until: 24:00, 2;         !- Field 4

Schedule:Compact,
    People_ch2,              !- Name
    Any Number,              !- Schedule Type Limits Name
    Through: 12/31,          !- Field 1
    For: AllDays,            !- Field 2
    Until: 7:00, 80,         !- Field 4
    Until: 8:00, 120,        !- Field 6
    Until: 17:00, 0,         !- Field 8
    Until: 20:00, 120,       !- Field 10
    Until: 24:00, 80;        !- Field 12

Schedule:Compact,
    People_ch3,              !- Name
    Any Number,              !- Schedule Type Limits Name
    Through: 12/31,          !- Field 1
    For: AllDays,            !- Field 2
    Until: 7:00, 80,         !- Field 4
    Until: 8:00, 120,        !- Field 6
    Until: 22:00, 0,         !- Field 8
    Until: 23:00, 120,       !- Field 10
    Until: 24:00, 80;        !- Field 12

Schedule:Compact,
    Chauffage_ch2,           !- Name
    Any Number,              !- Schedule Type Limits Name
    Through: 12/31,          !- Field 1
    For: AllDays,            !- Field 2
    Until: 7:00, 18,         !- Field 4
    Until: 8:00, 21,         !- Field 6
    Until: 17:00, 15,        !- Field 8
    Until: 20:00, 21,        !- Field 10
    Until: 24:00, 18;        !- Field 12

Schedule:Compact,
    Chauffage_ch3,           !- Name
    Any Number,              !- Schedule Type Limits Name
    Through: 12/31,          !- Field 1
    For: AllDays,            !- Field 2
    Until: 7:00, 18,         !- Field 4
    Until: 8:00, 21,         !- Field 6
    Until: 22:00, 15,        !- Field 8
    Until: 23:00, 21,        !- Field 10
    Until: 24:00, 18;        !- Field 12

Schedule:Compact,
    Volets_ch2,              !- Name
    Any Number,              !- Schedule Type Limits Name
    Through: 12/31,          !- Field 1
    For: AllDays,            !- Field 2
    Until: 7:00, 1,          !- Field 4
    Until: 20:00, 0,         !- Field 6
    Until: 24:00, 1;         !- Field 8

Schedule:Compact,
    Volets_ch3,              !- Name
    Any Number,              !- Schedule Type Limits Name
    Through: 12/31,          !- Field 1
    For: AllDays,            !- Field 2
    Until: 7:00, 1,          !- Field 4
    Until: 23:00, 0,         !- Field 6
    Until: 24:00, 1;         !- Field 8

Schedule:Compact,
    Chauffage_ch1,           !- Name
    Any Number,              !- Schedule Type Limits Name
    Through: 12/31,          !- Field 1
    For: AllDays,            !- Field 2
    Until: 7:00, 18,         !- Field 4
    Until: 8:00, 21,         !- Field 6
    Until: 17:00, 15,        !- Field 8
    Until: 20:00, 21,        !- Field 10
    Until: 24:00, 18;        !- Field 12

Schedule:Compact,
    Volets_ch1,              !- Name
    Any Number,              !- Schedule Type Limits Name
    Through: 12/31,          !- Field 1
    For: AllDays,            !- Field 2
    Until: 7:00, 1,          !- Field 4
    Until: 20:00, 0,         !- Field 6
    Until: 24:00, 1;         !- Field 8

Schedule:Compact,
    Volets_sdb,              !- Name
    Any Number,              !- Schedule Type Limits Name
    Through: 12/31,          !- Field 1
    For: AllDays,            !- Field 2
    Until: 24:00, 0;         !- Field 4

Schedule:Compact,
    Ventilation_ch1,         !- Name
    Any Number,              !- Schedule Type Limits Name
    Through: 12/31,          !- Field 1
    For: AllDays,            !- Field 2
    Until: 8:00, .1169,      !- Field 4
    Until: 17:00, .0441,     !- Field 6
    Until: 24:00, .1169;     !- Field 8

Schedule:Compact,
    Ventilation_ch3,         !- Name
    Any Number,              !- Schedule Type Limits Name
    Through: 12/31,          !- Field 1
    For: AllDays,            !- Field 2
    Until: 8:00, .1803,      !- Field 4
    Until: 22:00, .068,      !- Field 6
    Until: 24:00, .1803;     !- Field 8

Schedule:Compact,
    Ventilation_ch2,         !- Name
    Any Number,              !- Schedule Type Limits Name
    Through: 12/31,          !- Field 1
    For: AllDays,            !- Field 2
    Until: 8:00, .1709,      !- Field 4
    Until: 17:00, .0644,     !- Field 6
    Until: 24:00, .1709;     !- Field 8

Schedule:Compact,
    SCHEDULE_CO-COOLING,     !- Name
    Any Number,              !- Schedule Type Limits Name
    Through: 12/31,          !- Field 1
    For: AllDays,            !- Field 2
    Until: 24:00, T_INT_VARIABLE;
                             !- Field 4

Schedule:Compact,
    HVACTemplate-Always 50,  !- Name
    HVACTemplate Any Number, !- Schedule Type Limits Name
    Through: 12/31,          !- Field 1
    For: AllDays,            !- Field 2
    Until: 24:00, 50;        !- Field 4

Schedule:Compact,
    HVACTemplate-Always 19,  !- Name
    HVACTemplate Any Number, !- Schedule Type Limits Name
    Through: 12/31,          !- Field 1
    For: AllDays,            !- Field 2
    Until: 24:00, 19;        !- Field 4

Schedule:Compact,
    HVACTemplate-Always,     !- Name
    HVACTemplate Any Number, !- Schedule Type Limits Name
    Through: 12/31,          !- Field 1
    For: AllDays,            !- Field 2
    Until: 24:00; 
Schedule:Compact,
    HVACTemplate-Always 4,   !- Name
    HVACTemplate Any Number, !- Schedule Type Limits Name
    Through: 12/31,          !- Field 1
    For: AllDays,            !- Field 2
    Until: 24:00, 4;         !- Field 4

Schedule:Compact,
    SCHEDULE_CO-HEATING,     !- Name
    Any Number,              !- Schedule Type Limits Name
    Through: 12/31,          !- Field 1
    For: AllDays,            !- Field 2
    Until: 24:00, 10;        !- Field 4


!-   ===========  ALL OBJECTS IN CLASS: MATERIAL ===========

Material,
    Laine de Verre 5cm,      !- Name
    Rough,                   !- Roughness
    0.05,                    !- Thickness {m}
    0.032,                   !- Conductivity {W/m-K}
    12,                      !- Density {kg/m3}
    840,                     !- Specific Heat {J/kg-K}
    0.9,                     !- Thermal Absorptance
    0.6,                     !- Solar Absorptance
    0.6;                     !- Visible Absorptance

Material,
    Placo_13mm,              !- Name
    MediumRough,             !- Roughness
    0.013,                   !- Thickness {m}
    0.25,                    !- Conductivity {W/m-K}
    825,                     !- Density {kg/m3}
    1008,                    !- Specific Heat {J/kg-K}
    0.99999,                 !- Thermal Absorptance
    0.6,                     !- Solar Absorptance
    0.6;                     !- Visible Absorptance

Material,
    BetonBanche,             !- Name
    Rough,                   !- Roughness
    0.15,                    !- Thickness {m}
    1.75,                    !- Conductivity {W/m-K}
    2500,                    !- Density {kg/m3}
    1000,                    !- Specific Heat {J/kg-K}
    0.9,                     !- Thermal Absorptance
    0.6,                     !- Solar Absorptance
    0.6;                     !- Visible Absorptance

Material,
    LDV32_10cm,              !- Name
    Rough,                   !- Roughness
    0.1,                     !- Thickness {m}
    0.032,                   !- Conductivity {W/m-K}
    12,                      !- Density {kg/m3}
    840,                     !- Specific Heat {J/kg-K}
    0.9,                     !- Thermal Absorptance
    0.6,                     !- Solar Absorptance
    0.6;                     !- Visible Absorptance

Material,
    LDV35_40cm,              !- Name
    Rough,                   !- Roughness
    0.4,                     !- Thickness {m}
    0.035,                   !- Conductivity {W/m-K}
    12,                      !- Density {kg/m3}
    840,                     !- Specific Heat {J/kg-K}
    0.9,                     !- Thermal Absorptance
    0.6,                     !- Solar Absorptance
    0.6;                     !- Visible Absorptance

Material,
    PolystyreneXtrude29,     !- Name
    MediumSmooth,            !- Roughness
    0.2,                     !- Thickness {m}
    0.029,                   !- Conductivity {W/m-K}
    35,                      !- Density {kg/m3}
    1400,                    !- Specific Heat {J/kg-K}
    0.9,                     !- Thermal Absorptance
    0.6,                     !- Solar Absorptance
    0.6;                     !- Visible Absorptance

Material,
    PolystyreneXtrude30,     !- Name
    MediumSmooth,            !- Roughness
    0.2,                     !- Thickness {m}
    1.5,                     !- Conductivity {W/m-K}
    35,                      !- Density {kg/m3}
    1400,                    !- Specific Heat {J/kg-K}
    0.9,                     !- Thermal Absorptance
    0.6,                     !- Solar Absorptance
    0.6;                     !- Visible Absorptance

Material,
    Hourdis,                 !- Name
    Rough,                   !- Roughness
    0.16,                    !- Thickness {m}
    1.23,                    !- Conductivity {W/m-K}
    1300,                    !- Density {kg/m3}
    648,                     !- Specific Heat {J/kg-K}
    0.9,                     !- Thermal Absorptance
    0.6,                     !- Solar Absorptance
    0.6;                     !- Visible Absorptance

Material,
    DalleCompression,        !- Name
    Rough,                   !- Roughness
    0.04,                    !- Thickness {m}
    1.75,                    !- Conductivity {W/m-K}
    2400,                    !- Density {kg/m3}
    880,                     !- Specific Heat {J/kg-K}
    0.9,                     !- Thermal Absorptance
    0.6,                     !- Solar Absorptance
    0.6;                     !- Visible Absorptance

Material,
    ChapeBeton,              !- Name
    MediumSmooth,            !- Roughness
    0.08,                    !- Thickness {m}
    1.75,                    !- Conductivity {W/m-K}
    2200,                    !- Density {kg/m3}
    880,                     !- Specific Heat {J/kg-K}
    0.9,                     !- Thermal Absorptance
    0.6,                     !- Solar Absorptance
    0.6;                     !- Visible Absorptance

Material,
    DalleBA,                 !- Name
    Rough,                   !- Roughness
    0.16,                    !- Thickness {m}
    2.5,                     !- Conductivity {W/m-K}
    2500,                    !- Density {kg/m3}
    1000,                    !- Specific Heat {J/kg-K}
    0.9,                     !- Thermal Absorptance
    0.6,                     !- Solar Absorptance
    0.6;                     !- Visible Absorptance

Material,
    PlatreFinition,          !- Name
    MediumSmooth,            !- Roughness
    0.015,                   !- Thickness {m}
    0.43,                    !- Conductivity {W/m-K}
    1200,                    !- Density {kg/m3}
    1000,                    !- Specific Heat {J/kg-K}
    0.9,                     !- Thermal Absorptance
    0.6,                     !- Solar Absorptance
    0.6;                     !- Visible Absorptance

Material,
    EnduitExt,               !- Name
    MediumRough,             !- Roughness
    0.015,                   !- Thickness {m}
    1,                       !- Conductivity {W/m-K}
    1450,                    !- Density {kg/m3}
    500,                     !- Specific Heat {J/kg-K}
    0.9,                     !- Thermal Absorptance
    0.6,                     !- Solar Absorptance
    0.6;                     !- Visible Absorptance

Material,
    Carrelage,               !- Name
    Smooth,                  !- Roughness
    0.01,                    !- Thickness {m}
    0.41,                    !- Conductivity {W/m-K}
    1200,                    !- Density {kg/m3}
    1000,                    !- Specific Heat {J/kg-K}
    0.9,                     !- Thermal Absorptance
    0.6,                     !- Solar Absorptance
    0.6;                     !- Visible Absorptance

Material,
    Gravier,                 !- Name
    VeryRough,               !- Roughness
    0.05,                    !- Thickness {m}
    1.4,                     !- Conductivity {W/m-K}
    2100,                    !- Density {kg/m3}
    650,                     !- Specific Heat {J/kg-K}
    0.9,                     !- Thermal Absorptance
    0.6,                     !- Solar Absorptance
    0.6;                     !- Visible Absorptance

Material,
    EnduitVS,                !- Name
    MediumRough,             !- Roughness
    0.015,                   !- Thickness {m}
    1,                       !- Conductivity {W/m-K}
    1800,                    !- Density {kg/m3}
    1000,                    !- Specific Heat {J/kg-K}
    0.9,                     !- Thermal Absorptance
    0.6,                     !- Solar Absorptance
    0.6;                     !- Visible Absorptance

Material,
    Tuiles,                  !- Name
    MediumRough,             !- Roughness
    0.015,                   !- Thickness {m}
    2.2,                     !- Conductivity {W/m-K}
    2700,                    !- Density {kg/m3}
    753,                     !- Specific Heat {J/kg-K}
    0.9,                     !- Thermal Absorptance
    0.6,                     !- Solar Absorptance
    0.6;                     !- Visible Absorptance

Material,
    Charpente,               !- Name
    MediumRough,             !- Roughness
    0.01,                    !- Thickness {m}
    0.16,                    !- Conductivity {W/m-K}
    500,                     !- Density {kg/m3}
    2400,                    !- Specific Heat {J/kg-K}
    0.9,                     !- Thermal Absorptance
    0.6,                     !- Solar Absorptance
    0.6;                     !- Visible Absorptance

Material,
    SopremaPavaflexConfort,  !- Name
    MediumRough,             !- Roughness
    0.34,                    !- Thickness {m}
    2,                       !- Conductivity {W/m-K}
    50,                      !- Density {kg/m3}
    2100,                    !- Specific Heat {J/kg-K}
    0.6,                     !- Thermal Absorptance
    0.6,                     !- Solar Absorptance
    0.6;                     !- Visible Absorptance

Material,
    PlancherBois,            !- Name
    MediumRough,             !- Roughness
    0.02,                    !- Thickness {m}
    0.13,                    !- Conductivity {W/m-K}
    600,                     !- Density {kg/m3}
    2500,                    !- Specific Heat {J/kg-K}
    0.9,                     !- Thermal Absorptance
    0.6,                     !- Solar Absorptance
    0.6;                     !- Visible Absorptance


!-   ===========  ALL OBJECTS IN CLASS: MATERIAL:NOMASS ===========

Material:NoMass,
    Porte,                   !- Name
    MediumSmooth,            !- Roughness
    0.8;                     !- Thermal Resistance {m2-K/W}

Material:NoMass,
    LameAirVert2d7cm,        !- Name
    MediumRough,             !- Roughness
    0.23;                    !- Thermal Resistance {m2-K/W}


!-   ===========  ALL OBJECTS IN CLASS: WINDOWMATERIAL:SIMPLEGLAZINGSYSTEM ===========

WindowMaterial:SimpleGlazingSystem,
    pf_S_R+1,                !- Name
    5,                       !- U-Factor {W/m2-K}
    0.39;                    !- Solar Heat Gain Coefficient

WindowMaterial:SimpleGlazingSystem,
    pf_S_RDC,                !- Name
    5,                       !- U-Factor {W/m2-K}
    0.47;                    !- Solar Heat Gain Coefficient

WindowMaterial:SimpleGlazingSystem,
    pf_O_RDC,                !- Name
    5,                       !- U-Factor {W/m2-K}
    0.41;                    !- Solar Heat Gain Coefficient

WindowMaterial:SimpleGlazingSystem,
    f_E_R+1,                 !- Name
    5,                       !- U-Factor {W/m2-K}
    0.28;                    !- Solar Heat Gain Coefficient

WindowMaterial:SimpleGlazingSystem,
    f_R+2_E-RDC,             !- Name
    5,                       !- U-Factor {W/m2-K}
    0.32;                    !- Solar Heat Gain Coefficient

WindowMaterial:SimpleGlazingSystem,
    f_O_RDC,                 !- Name
    5,                       !- U-Factor {W/m2-K}
    0.34;                    !- Solar Heat Gain Coefficient

WindowMaterial:SimpleGlazingSystem,
    f_N_RDC,                 !- Name
    5,                       !- U-Factor {W/m2-K}
    0.24;                    !- Solar Heat Gain Coefficient

WindowMaterial:SimpleGlazingSystem,
    f_N_R+1,                 !- Name
    5,                       !- U-Factor {W/m2-K}
    0.21;                    !- Solar Heat Gain Coefficient

WindowMaterial:SimpleGlazingSystem,
    pf_O_R+1,                !- Name
    5,                       !- U-Factor {W/m2-K}
    0.41;                    !- Solar Heat Gain Coefficient


!-   ===========  ALL OBJECTS IN CLASS: WINDOWMATERIAL:SHADE ===========

WindowMaterial:Shade,
    VoletsR,                 !- Name
    0.02,                    !- Solar Transmittance {dimensionless}
    0.66,                    !- Solar Reflectance {dimensionless}
    0.02,                    !- Visible Transmittance {dimensionless}
    0.66,                    !- Visible Reflectance {dimensionless}
    0.92,                    !- Infrared Hemispherical Emissivity {dimensionless}
    0,                       !- Infrared Transmittance {dimensionless}
    0.008,                   !- Thickness {m}
    0.17,                    !- Conductivity {W/m-K}
    0.03,                    !- Shade to Glass Distance {m}